* NGSPICE file created from heichips25_top_sorter.ext - technology: ihp-sg13g2

* Black-box entry subcircuit for sg13g2_fill_2 abstract view
.subckt sg13g2_fill_2 VDD VSS
.ends

* Black-box entry subcircuit for sg13g2_o21ai_1 abstract view
.subckt sg13g2_o21ai_1 B1 VDD Y VSS A1 A2
.ends

* Black-box entry subcircuit for sg13g2_decap_8 abstract view
.subckt sg13g2_decap_8 VDD VSS
.ends

* Black-box entry subcircuit for sg13g2_nand2_1 abstract view
.subckt sg13g2_nand2_1 Y A B VDD VSS
.ends

* Black-box entry subcircuit for sg13g2_nor2b_1 abstract view
.subckt sg13g2_nor2b_1 A B_N Y VDD VSS
.ends

* Black-box entry subcircuit for sg13g2_mux2_1 abstract view
.subckt sg13g2_mux2_1 A0 A1 S X VDD VSS
.ends

* Black-box entry subcircuit for sg13g2_tiehi abstract view
.subckt sg13g2_tiehi VDD VSS L_HI
.ends

* Black-box entry subcircuit for sg13g2_fill_1 abstract view
.subckt sg13g2_fill_1 VDD VSS
.ends

* Black-box entry subcircuit for sg13g2_decap_4 abstract view
.subckt sg13g2_decap_4 VDD VSS
.ends

* Black-box entry subcircuit for sg13g2_a21oi_1 abstract view
.subckt sg13g2_a21oi_1 VSS VDD A1 A2 Y B1
.ends

* Black-box entry subcircuit for sg13g2_or2_1 abstract view
.subckt sg13g2_or2_1 VSS VDD X B A
.ends

* Black-box entry subcircuit for sg13g2_nand3_1 abstract view
.subckt sg13g2_nand3_1 B C A Y VDD VSS
.ends

* Black-box entry subcircuit for sg13g2_dlygate4sd3_1 abstract view
.subckt sg13g2_dlygate4sd3_1 A VDD VSS X
.ends

* Black-box entry subcircuit for sg13g2_inv_1 abstract view
.subckt sg13g2_inv_1 VDD Y A VSS
.ends

* Black-box entry subcircuit for sg13g2_dfrbpq_2 abstract view
.subckt sg13g2_dfrbpq_2 RESET_B VSS VDD D Q CLK
.ends

* Black-box entry subcircuit for sg13g2_and2_1 abstract view
.subckt sg13g2_and2_1 A B X VDD VSS
.ends

* Black-box entry subcircuit for sg13g2_a21o_1 abstract view
.subckt sg13g2_a21o_1 A2 A1 B1 X VDD VSS
.ends

* Black-box entry subcircuit for sg13g2_nor3_1 abstract view
.subckt sg13g2_nor3_1 A B C Y VDD VSS
.ends

* Black-box entry subcircuit for sg13g2_dfrbpq_1 abstract view
.subckt sg13g2_dfrbpq_1 RESET_B VSS VDD D Q CLK
.ends

* Black-box entry subcircuit for sg13g2_xnor2_1 abstract view
.subckt sg13g2_xnor2_1 Y A B VDD VSS
.ends

* Black-box entry subcircuit for sg13g2_buf_8 abstract view
.subckt sg13g2_buf_8 A X VDD VSS
.ends

* Black-box entry subcircuit for sg13g2_buf_2 abstract view
.subckt sg13g2_buf_2 A X VDD VSS
.ends

* Black-box entry subcircuit for sg13g2_buf_1 abstract view
.subckt sg13g2_buf_1 A X VDD VSS
.ends

* Black-box entry subcircuit for sg13g2_nor2_1 abstract view
.subckt sg13g2_nor2_1 A B Y VDD VSS
.ends

* Black-box entry subcircuit for sg13g2_a221oi_1 abstract view
.subckt sg13g2_a221oi_1 VDD VSS B2 C1 B1 A1 Y A2
.ends

* Black-box entry subcircuit for sg13g2_and3_1 abstract view
.subckt sg13g2_and3_1 X A B C VDD VSS
.ends

* Black-box entry subcircuit for sg13g2_nand3b_1 abstract view
.subckt sg13g2_nand3b_1 B C Y VDD VSS A_N
.ends

* Black-box entry subcircuit for sg13g2_nand2b_1 abstract view
.subckt sg13g2_nand2b_1 Y B A_N VDD VSS
.ends

* Black-box entry subcircuit for sg13g2_nor4_1 abstract view
.subckt sg13g2_nor4_1 A B C D Y VDD VSS
.ends

* Black-box entry subcircuit for sg13g2_inv_2 abstract view
.subckt sg13g2_inv_2 Y A VDD VSS
.ends

* Black-box entry subcircuit for sg13g2_or4_1 abstract view
.subckt sg13g2_or4_1 A B C D X VDD VSS
.ends

* Black-box entry subcircuit for sg13g2_a22oi_1 abstract view
.subckt sg13g2_a22oi_1 Y B1 B2 A2 A1 VDD VSS
.ends

* Black-box entry subcircuit for sg13g2_and4_1 abstract view
.subckt sg13g2_and4_1 A B C D X VDD VSS
.ends

* Black-box entry subcircuit for sg13g2_tielo abstract view
.subckt sg13g2_tielo VDD VSS L_LO
.ends

* Black-box entry subcircuit for sg13g2_or3_1 abstract view
.subckt sg13g2_or3_1 A B C X VDD VSS
.ends

* Black-box entry subcircuit for sg13g2_nand4_1 abstract view
.subckt sg13g2_nand4_1 B C A Y VDD VSS D
.ends

* Black-box entry subcircuit for sg13g2_inv_8 abstract view
.subckt sg13g2_inv_8 Y A VDD VSS
.ends

* Black-box entry subcircuit for sg13g2_inv_4 abstract view
.subckt sg13g2_inv_4 A Y VDD VSS
.ends

* Black-box entry subcircuit for sg13g2_xor2_1 abstract view
.subckt sg13g2_xor2_1 B A X VDD VSS
.ends

* Black-box entry subcircuit for sg13g2_nor2_2 abstract view
.subckt sg13g2_nor2_2 A B Y VDD VSS
.ends

.subckt heichips25_top_sorter VGND VPWR clk ena rst_n ui_in[0] ui_in[1] ui_in[2] ui_in[3]
+ ui_in[4] ui_in[5] ui_in[6] ui_in[7] uio_in[0] uio_in[1] uio_in[2] uio_in[3] uio_in[4]
+ uio_in[5] uio_in[6] uio_in[7] uio_oe[0] uio_oe[1] uio_oe[2] uio_oe[3] uio_oe[4]
+ uio_oe[5] uio_oe[6] uio_oe[7] uio_out[0] uio_out[1] uio_out[2] uio_out[3] uio_out[4]
+ uio_out[5] uio_out[6] uio_out[7] uo_out[0] uo_out[1] uo_out[2] uo_out[3] uo_out[4]
+ uo_out[5] uo_out[6] uo_out[7]
XFILLER_39_233 VPWR VGND sg13g2_fill_2
X_3155_ _1606_ VPWR _1607_ VGND net1327 net419 sg13g2_o21ai_1
XFILLER_36_973 VPWR VGND sg13g2_decap_8
XFILLER_35_494 VPWR VGND sg13g2_decap_8
X_3988_ _2361_ net946 net348 VPWR VGND sg13g2_nand2_1
X_5727_ net1024 net1075 _1361_ VPWR VGND sg13g2_nor2b_1
X_5658_ s0.data_out\[10\]\[0\] s0.data_out\[9\]\[0\] net1041 _1303_ VPWR VGND sg13g2_mux2_1
X_4609_ _0351_ VPWR _0352_ VGND _0347_ _0350_ sg13g2_o21ai_1
X_5589_ net1035 net1074 _1242_ VPWR VGND sg13g2_nor2b_1
XFILLER_2_549 VPWR VGND sg13g2_decap_8
X_6134__141 VPWR VGND net141 sg13g2_tiehi
XFILLER_19_907 VPWR VGND sg13g2_fill_1
XFILLER_46_726 VPWR VGND sg13g2_decap_8
XFILLER_27_995 VPWR VGND sg13g2_decap_8
XFILLER_42_943 VPWR VGND sg13g2_decap_8
XFILLER_41_453 VPWR VGND sg13g2_fill_2
XFILLER_9_104 VPWR VGND sg13g2_fill_1
XFILLER_14_667 VPWR VGND sg13g2_fill_1
XFILLER_14_678 VPWR VGND sg13g2_decap_8
XFILLER_6_877 VPWR VGND sg13g2_decap_8
XFILLER_5_343 VPWR VGND sg13g2_decap_4
XFILLER_1_571 VPWR VGND sg13g2_decap_8
XFILLER_49_520 VPWR VGND sg13g2_decap_8
XFILLER_49_597 VPWR VGND sg13g2_decap_8
XFILLER_18_973 VPWR VGND sg13g2_decap_8
XFILLER_45_781 VPWR VGND sg13g2_decap_8
X_4960_ _0670_ VPWR _0671_ VGND net1320 net445 sg13g2_o21ai_1
X_4891_ _0608_ net1264 _0607_ VPWR VGND sg13g2_nand2_1
X_3911_ _2292_ net928 _2291_ VPWR VGND sg13g2_nand2_1
X_3842_ VGND VPWR net954 net495 _2228_ _2227_ sg13g2_a21oi_1
XFILLER_33_976 VPWR VGND sg13g2_decap_8
XFILLER_20_648 VPWR VGND sg13g2_fill_1
X_3773_ VGND VPWR net1222 net957 _2168_ _2166_ sg13g2_a21oi_1
XFILLER_9_660 VPWR VGND sg13g2_fill_2
X_5512_ net1344 VPWR _1171_ VGND net939 _1170_ sg13g2_o21ai_1
X_5443_ _1091_ _1092_ _1112_ VPWR VGND sg13g2_nor2b_1
X_5374_ VGND VPWR _1046_ net501 net1336 sg13g2_or2_1
X_4325_ net1286 VPWR _2658_ VGND net931 _2657_ sg13g2_o21ai_1
X_6118__158 VPWR VGND net158 sg13g2_tiehi
X_4256_ s0.data_out\[21\]\[6\] s0.data_out\[20\]\[6\] net1200 _2596_ VPWR VGND sg13g2_mux2_1
XFILLER_41_1024 VPWR VGND sg13g2_decap_4
X_4187_ _2530_ _2532_ net1285 _2533_ VPWR VGND sg13g2_nand3_1
X_3207_ VGND VPWR net1001 _1651_ _1652_ _1611_ sg13g2_a21oi_1
X_3138_ net1329 VPWR _1593_ VGND _1588_ _1590_ sg13g2_o21ai_1
XFILLER_43_718 VPWR VGND sg13g2_fill_2
XFILLER_24_965 VPWR VGND sg13g2_decap_8
XFILLER_10_136 VPWR VGND sg13g2_decap_8
XFILLER_12_10 VPWR VGND sg13g2_fill_1
XFILLER_3_803 VPWR VGND sg13g2_decap_8
Xhold170 _0188_ VPWR VGND net466 sg13g2_dlygate4sd3_1
Xhold181 s0.data_out\[13\]\[2\] VPWR VGND net477 sg13g2_dlygate4sd3_1
Xhold192 s0.data_out\[2\]\[2\] VPWR VGND net488 sg13g2_dlygate4sd3_1
XFILLER_46_534 VPWR VGND sg13g2_decap_8
XFILLER_37_62 VPWR VGND sg13g2_decap_8
XFILLER_34_707 VPWR VGND sg13g2_decap_8
XFILLER_37_95 VPWR VGND sg13g2_decap_8
XFILLER_41_250 VPWR VGND sg13g2_fill_1
XFILLER_15_987 VPWR VGND sg13g2_decap_8
XFILLER_18_1015 VPWR VGND sg13g2_decap_8
XFILLER_41_294 VPWR VGND sg13g2_fill_1
XFILLER_10_670 VPWR VGND sg13g2_decap_4
XFILLER_5_140 VPWR VGND sg13g2_decap_8
X_4110_ VPWR _2469_ net1004 VGND sg13g2_inv_1
X_5090_ net1333 VPWR _0789_ VGND net937 _0788_ sg13g2_o21ai_1
X_4041_ _2407_ VPWR _2408_ VGND net940 _2347_ sg13g2_o21ai_1
XFILLER_49_394 VPWR VGND sg13g2_decap_8
XFILLER_37_567 VPWR VGND sg13g2_fill_1
X_5992_ net294 VGND VPWR _0042_ s0.data_out\[18\]\[3\] clknet_leaf_35_clk sg13g2_dfrbpq_2
XFILLER_18_781 VPWR VGND sg13g2_decap_8
X_4943_ _0652_ _0655_ net1318 _0656_ VPWR VGND sg13g2_nand3_1
XFILLER_21_913 VPWR VGND sg13g2_fill_2
X_4874_ s0.data_out\[16\]\[2\] s0.data_out\[15\]\[2\] net1141 _0591_ VPWR VGND sg13g2_mux2_1
X_3825_ net953 s0.data_out\[1\]\[5\] _2213_ VPWR VGND sg13g2_and2_1
X_3756_ _2152_ net963 _2098_ _2153_ VPWR VGND sg13g2_a21o_1
X_5426_ _1095_ net1097 net330 VPWR VGND sg13g2_nand2_1
X_3687_ VPWR _0229_ net510 VGND sg13g2_inv_1
XFILLER_0_817 VPWR VGND sg13g2_decap_8
X_5357_ net1103 VPWR _1031_ VGND _1029_ _1030_ sg13g2_o21ai_1
X_4308_ net1178 net1069 _2643_ VPWR VGND sg13g2_nor2b_1
X_5288_ _0969_ net1111 net588 VPWR VGND sg13g2_nand2_1
X_4239_ _2578_ net1190 _2514_ _2579_ VPWR VGND sg13g2_a21o_1
X_6131__144 VPWR VGND net144 sg13g2_tiehi
XFILLER_16_729 VPWR VGND sg13g2_fill_1
XFILLER_24_773 VPWR VGND sg13g2_decap_4
XFILLER_11_445 VPWR VGND sg13g2_decap_4
XFILLER_12_957 VPWR VGND sg13g2_decap_8
X_5961__56 VPWR VGND net56 sg13g2_tiehi
XFILLER_20_990 VPWR VGND sg13g2_decap_8
XFILLER_47_843 VPWR VGND sg13g2_decap_8
XFILLER_46_353 VPWR VGND sg13g2_fill_1
XFILLER_9_33 VPWR VGND sg13g2_fill_1
X_4590_ net1158 net1058 _0335_ VPWR VGND sg13g2_nor2b_1
X_3610_ _2018_ VPWR _2019_ VGND _2011_ _2012_ sg13g2_o21ai_1
XFILLER_7_950 VPWR VGND sg13g2_decap_8
X_6078__201 VPWR VGND net201 sg13g2_tiehi
X_3541_ _1956_ VPWR _1957_ VGND net1312 net433 sg13g2_o21ai_1
XFILLER_6_471 VPWR VGND sg13g2_decap_8
X_3472_ VGND VPWR net981 _1892_ _1893_ _1830_ sg13g2_a21oi_1
X_5211_ net1116 VPWR _0899_ VGND _0897_ _0898_ sg13g2_o21ai_1
XFILLER_9_1013 VPWR VGND sg13g2_decap_8
X_6191_ net79 VGND VPWR _0241_ s0.data_out\[2\]\[3\] clknet_leaf_8_clk sg13g2_dfrbpq_2
X_5142_ VGND VPWR net1113 _0834_ _0835_ _0774_ sg13g2_a21oi_1
XFILLER_29_0 VPWR VGND sg13g2_fill_2
XFILLER_38_832 VPWR VGND sg13g2_decap_4
X_5073_ net1113 net1075 _0774_ VPWR VGND sg13g2_nor2b_1
X_4024_ net297 net1208 _2396_ _0258_ VPWR VGND sg13g2_nor3_1
XFILLER_37_364 VPWR VGND sg13g2_fill_2
X_5975_ net41 VGND VPWR net324 s0.was_valid_out\[19\][0] clknet_leaf_1_clk sg13g2_dfrbpq_1
X_4926_ net1139 VPWR _0641_ VGND net1228 net1125 sg13g2_o21ai_1
XFILLER_33_570 VPWR VGND sg13g2_fill_2
XFILLER_20_242 VPWR VGND sg13g2_decap_8
X_4857_ VPWR _0068_ _0576_ VGND sg13g2_inv_1
X_3808_ _2198_ net930 _2197_ VPWR VGND sg13g2_nand2_1
XFILLER_5_909 VPWR VGND sg13g2_decap_8
X_4788_ _0517_ net1214 _0511_ VPWR VGND sg13g2_xnor2_1
X_3739_ _2136_ net966 net553 VPWR VGND sg13g2_nand2_1
X_5409_ _1077_ VPWR _1078_ VGND net1096 _2488_ sg13g2_o21ai_1
XFILLER_0_614 VPWR VGND sg13g2_decap_8
XFILLER_29_843 VPWR VGND sg13g2_fill_2
XFILLER_44_857 VPWR VGND sg13g2_decap_8
XFILLER_34_41 VPWR VGND sg13g2_fill_2
XFILLER_12_754 VPWR VGND sg13g2_fill_2
XFILLER_4_942 VPWR VGND sg13g2_decap_8
XFILLER_3_485 VPWR VGND sg13g2_decap_8
Xfanout1231 net1234 net1231 VPWR VGND sg13g2_buf_8
Xfanout1220 _2450_ net1220 VPWR VGND sg13g2_buf_8
Xfanout1242 net1245 net1242 VPWR VGND sg13g2_buf_8
Xfanout1253 ui_in[5] net1253 VPWR VGND sg13g2_buf_8
Xfanout1264 net1267 net1264 VPWR VGND sg13g2_buf_8
XFILLER_47_640 VPWR VGND sg13g2_decap_8
Xfanout1286 net1288 net1286 VPWR VGND sg13g2_buf_8
Xfanout1275 net1276 net1275 VPWR VGND sg13g2_buf_8
Xfanout1297 net1300 net1297 VPWR VGND sg13g2_buf_8
XFILLER_34_334 VPWR VGND sg13g2_fill_2
XFILLER_22_507 VPWR VGND sg13g2_decap_8
X_5760_ net1037 VPWR _1390_ VGND _1388_ _1389_ sg13g2_o21ai_1
X_4711_ net1147 net1062 _0445_ VPWR VGND sg13g2_nor2b_1
X_5691_ _1336_ _1331_ _1335_ VPWR VGND sg13g2_nand2_1
X_4642_ _0382_ net1157 _0355_ _0383_ VPWR VGND sg13g2_a21o_1
X_4573_ net1155 net1068 _0320_ VPWR VGND sg13g2_nor2b_1
X_3524_ net1313 VPWR _1943_ VGND _1940_ _1942_ sg13g2_o21ai_1
X_3455_ VGND VPWR _1787_ _1876_ _1877_ net994 sg13g2_a21oi_1
X_3386_ net994 VPWR _1817_ VGND net1226 net984 sg13g2_o21ai_1
X_6174_ net98 VGND VPWR net320 s0.was_valid_out\[3\][0] clknet_leaf_11_clk sg13g2_dfrbpq_1
X_5125_ VPWR _0093_ _0819_ VGND sg13g2_inv_1
X_5056_ VGND VPWR _0761_ net1209 net299 sg13g2_or2_1
X_4007_ s0.data_out\[1\]\[4\] s0.data_out\[0\]\[4\] net948 _2380_ VPWR VGND sg13g2_mux2_1
XFILLER_25_345 VPWR VGND sg13g2_fill_1
XFILLER_13_529 VPWR VGND sg13g2_fill_2
X_5958_ net59 VGND VPWR net362 s0.data_out\[21\]\[5\] clknet_leaf_2_clk sg13g2_dfrbpq_1
X_4909_ _0571_ _0624_ net1250 _0626_ VPWR VGND sg13g2_nand3_1
X_5889_ net1016 s0.data_out\[7\]\[4\] _1507_ VPWR VGND sg13g2_and2_1
XFILLER_21_551 VPWR VGND sg13g2_fill_1
XFILLER_21_562 VPWR VGND sg13g2_decap_4
XFILLER_4_205 VPWR VGND sg13g2_fill_2
XFILLER_20_10 VPWR VGND sg13g2_decap_4
XFILLER_0_400 VPWR VGND sg13g2_decap_4
XFILLER_49_905 VPWR VGND sg13g2_decap_8
XFILLER_1_956 VPWR VGND sg13g2_decap_8
XFILLER_48_415 VPWR VGND sg13g2_decap_8
Xhold30 s0.was_valid_out\[7\][0] VPWR VGND net326 sg13g2_dlygate4sd3_1
XFILLER_0_466 VPWR VGND sg13g2_decap_8
Xhold41 s0.valid_out\[19\][0] VPWR VGND net337 sg13g2_dlygate4sd3_1
XFILLER_29_41 VPWR VGND sg13g2_fill_2
Xhold74 s0.data_out\[21\]\[1\] VPWR VGND net370 sg13g2_dlygate4sd3_1
XFILLER_21_1011 VPWR VGND sg13g2_decap_8
Xhold63 s0.data_out\[21\]\[4\] VPWR VGND net359 sg13g2_dlygate4sd3_1
Xhold52 s0.data_out\[0\]\[3\] VPWR VGND net348 sg13g2_dlygate4sd3_1
Xhold85 s0.was_valid_out\[15\][0] VPWR VGND net381 sg13g2_dlygate4sd3_1
Xhold96 s0.data_out\[0\]\[1\] VPWR VGND net392 sg13g2_dlygate4sd3_1
XFILLER_16_323 VPWR VGND sg13g2_fill_2
XFILLER_17_824 VPWR VGND sg13g2_fill_1
XFILLER_17_846 VPWR VGND sg13g2_fill_1
XFILLER_45_84 VPWR VGND sg13g2_decap_8
XFILLER_43_153 VPWR VGND sg13g2_decap_8
XFILLER_8_522 VPWR VGND sg13g2_decap_8
XFILLER_6_23 VPWR VGND sg13g2_fill_2
XFILLER_4_761 VPWR VGND sg13g2_decap_8
X_6075__204 VPWR VGND net204 sg13g2_tiehi
X_3240_ _1684_ net1006 _1645_ _1685_ VPWR VGND sg13g2_a21o_1
XFILLER_39_404 VPWR VGND sg13g2_decap_8
XFILLER_20_4 VPWR VGND sg13g2_fill_2
X_3171_ _1620_ VPWR _1621_ VGND _1616_ _1619_ sg13g2_o21ai_1
Xfanout1050 net1052 net1050 VPWR VGND sg13g2_buf_8
Xfanout1072 net605 net1072 VPWR VGND sg13g2_buf_8
Xfanout1061 net1064 net1061 VPWR VGND sg13g2_buf_8
Xfanout1083 net358 net1083 VPWR VGND sg13g2_buf_8
Xfanout1094 net1095 net1094 VPWR VGND sg13g2_buf_2
XFILLER_35_632 VPWR VGND sg13g2_fill_2
XFILLER_19_183 VPWR VGND sg13g2_fill_1
X_5812_ _1437_ net1028 _1409_ _1438_ VPWR VGND sg13g2_a21o_1
XFILLER_23_849 VPWR VGND sg13g2_decap_8
X_5743_ net1030 net1067 _1375_ VPWR VGND sg13g2_nor2b_1
X_5674_ s0.data_out\[10\]\[6\] s0.data_out\[9\]\[6\] net1043 _1319_ VPWR VGND sg13g2_mux2_1
X_4625_ _0365_ VPWR _0366_ VGND net1163 _2484_ sg13g2_o21ai_1
X_4556_ _0305_ net925 _0304_ VPWR VGND sg13g2_nand2_1
X_3507_ _1928_ _1902_ _1927_ VPWR VGND sg13g2_nand2_1
X_4487_ VPWR _0034_ net575 VGND sg13g2_inv_1
XFILLER_44_1011 VPWR VGND sg13g2_decap_8
X_3438_ s0.data_out\[4\]\[5\] s0.data_out\[5\]\[5\] net998 _1862_ VPWR VGND sg13g2_mux2_1
X_6157_ net116 VGND VPWR _0207_ s0.data_out\[5\]\[5\] clknet_leaf_13_clk sg13g2_dfrbpq_2
X_3369_ _1802_ net1250 _1801_ VPWR VGND sg13g2_nand2_1
XFILLER_46_908 VPWR VGND sg13g2_decap_8
X_5108_ _0804_ VPWR _0805_ VGND _0800_ _0803_ sg13g2_o21ai_1
X_6088_ net190 VGND VPWR _0138_ s0.data_out\[10\]\[3\] clknet_leaf_21_clk sg13g2_dfrbpq_2
XFILLER_39_993 VPWR VGND sg13g2_decap_8
X_5039_ VGND VPWR net1126 _0743_ _0744_ _0682_ sg13g2_a21oi_1
XFILLER_26_654 VPWR VGND sg13g2_fill_2
XFILLER_15_65 VPWR VGND sg13g2_fill_2
XFILLER_22_882 VPWR VGND sg13g2_fill_1
XFILLER_21_392 VPWR VGND sg13g2_fill_1
XFILLER_31_64 VPWR VGND sg13g2_decap_8
Xoutput7 net7 uo_out[5] VPWR VGND sg13g2_buf_1
XFILLER_1_753 VPWR VGND sg13g2_decap_8
XFILLER_49_702 VPWR VGND sg13g2_decap_8
XFILLER_0_296 VPWR VGND sg13g2_fill_1
XFILLER_49_779 VPWR VGND sg13g2_decap_8
XFILLER_36_418 VPWR VGND sg13g2_decap_4
XFILLER_45_963 VPWR VGND sg13g2_decap_8
X_5986__29 VPWR VGND net29 sg13g2_tiehi
XFILLER_29_492 VPWR VGND sg13g2_decap_8
XFILLER_16_164 VPWR VGND sg13g2_decap_8
XFILLER_16_175 VPWR VGND sg13g2_fill_2
XFILLER_16_186 VPWR VGND sg13g2_fill_2
XFILLER_13_860 VPWR VGND sg13g2_fill_2
XFILLER_32_668 VPWR VGND sg13g2_fill_1
X_4410_ VGND VPWR _2738_ net1208 net301 sg13g2_or2_1
X_5390_ VGND VPWR _1060_ net594 net1336 sg13g2_or2_1
X_4341_ net1196 VPWR _2672_ VGND _2670_ _2671_ sg13g2_o21ai_1
X_4272_ net1260 _2587_ _2612_ VPWR VGND sg13g2_nor2_1
XFILLER_28_1028 VPWR VGND sg13g2_fill_1
X_6011_ net274 VGND VPWR net322 s0.was_valid_out\[16\][0] clknet_leaf_32_clk sg13g2_dfrbpq_2
X_3223_ _1668_ net1264 _1667_ VPWR VGND sg13g2_nand2_1
X_3154_ _1602_ _1605_ net1327 _1606_ VPWR VGND sg13g2_nand3_1
XFILLER_36_952 VPWR VGND sg13g2_decap_8
XFILLER_22_167 VPWR VGND sg13g2_fill_1
X_3987_ VPWR VGND _2358_ _2359_ _2354_ net1211 _2360_ _2350_ sg13g2_a221oi_1
X_5726_ net1023 s0.data_out\[8\]\[0\] _1360_ VPWR VGND sg13g2_and2_1
X_5657_ _1247_ _1301_ _1302_ VPWR VGND sg13g2_and2_1
XFILLER_2_506 VPWR VGND sg13g2_decap_4
X_4608_ VGND VPWR _0351_ net558 net1302 sg13g2_or2_1
X_5588_ net1035 s0.data_out\[9\]\[0\] _1241_ VPWR VGND sg13g2_and2_1
X_4539_ _0292_ _2742_ _0290_ _0291_ VPWR VGND sg13g2_and3_1
X_6209_ net247 VGND VPWR _0259_ s0.genblk1\[19\].modules.bubble clknet_leaf_3_clk
+ sg13g2_dfrbpq_1
XFILLER_46_705 VPWR VGND sg13g2_decap_8
XFILLER_26_42 VPWR VGND sg13g2_decap_8
XFILLER_42_922 VPWR VGND sg13g2_decap_8
Xclkbuf_3_6__f_clk clknet_0_clk clknet_3_6__leaf_clk VPWR VGND sg13g2_buf_8
XFILLER_41_410 VPWR VGND sg13g2_fill_1
XFILLER_26_86 VPWR VGND sg13g2_decap_8
XFILLER_26_495 VPWR VGND sg13g2_decap_8
XFILLER_42_999 VPWR VGND sg13g2_decap_8
XFILLER_42_85 VPWR VGND sg13g2_fill_1
XFILLER_6_845 VPWR VGND sg13g2_fill_2
XFILLER_6_834 VPWR VGND sg13g2_decap_8
X_6072__207 VPWR VGND net207 sg13g2_tiehi
XFILLER_1_550 VPWR VGND sg13g2_decap_8
XFILLER_3_79 VPWR VGND sg13g2_fill_2
XFILLER_49_576 VPWR VGND sg13g2_decap_8
XFILLER_45_760 VPWR VGND sg13g2_decap_8
XFILLER_17_451 VPWR VGND sg13g2_decap_8
XFILLER_33_900 VPWR VGND sg13g2_decap_4
XFILLER_44_270 VPWR VGND sg13g2_decap_8
X_4890_ VGND VPWR net1149 _0606_ _0607_ _0557_ sg13g2_a21oi_1
X_3910_ s0.data_out\[0\]\[0\] s0.data_out\[1\]\[0\] net955 _2291_ VPWR VGND sg13g2_mux2_1
X_3841_ net953 net1045 _2227_ VPWR VGND sg13g2_nor2b_1
X_3772_ _2167_ net1222 net956 VPWR VGND sg13g2_nand2_1
XFILLER_32_476 VPWR VGND sg13g2_decap_8
X_5511_ VGND VPWR net1081 net521 _1170_ _1169_ sg13g2_a21oi_1
X_5442_ VGND VPWR _1104_ _1110_ _1111_ _1094_ sg13g2_a21oi_1
X_5373_ net1339 VPWR _1045_ VGND net938 _1044_ sg13g2_o21ai_1
X_4324_ VGND VPWR net1179 s0.data_out\[19\]\[3\] _2657_ _2656_ sg13g2_a21oi_1
XFILLER_41_1003 VPWR VGND sg13g2_decap_8
X_4255_ _2595_ net1200 net592 VPWR VGND sg13g2_nand2_1
X_4186_ _2531_ VPWR _2532_ VGND net1206 s0.data_out\[20\]\[2\] sg13g2_o21ai_1
X_3206_ _1650_ VPWR _1651_ VGND net1008 _2491_ sg13g2_o21ai_1
XFILLER_28_705 VPWR VGND sg13g2_decap_8
X_3137_ _1586_ _1591_ _1592_ VPWR VGND sg13g2_nor2_1
XFILLER_27_237 VPWR VGND sg13g2_fill_2
X_5973__43 VPWR VGND net43 sg13g2_tiehi
XFILLER_23_487 VPWR VGND sg13g2_decap_8
X_5709_ net1223 net1049 _1347_ VPWR VGND sg13g2_nor2_1
XFILLER_12_88 VPWR VGND sg13g2_fill_2
XFILLER_3_859 VPWR VGND sg13g2_decap_8
Xhold160 s0.data_out\[16\]\[5\] VPWR VGND net456 sg13g2_dlygate4sd3_1
Xhold171 s0.data_out\[7\]\[2\] VPWR VGND net467 sg13g2_dlygate4sd3_1
Xhold182 s0.data_out\[18\]\[3\] VPWR VGND net478 sg13g2_dlygate4sd3_1
Xhold193 _2196_ VPWR VGND net489 sg13g2_dlygate4sd3_1
XFILLER_19_727 VPWR VGND sg13g2_fill_1
XFILLER_46_557 VPWR VGND sg13g2_fill_1
XFILLER_46_546 VPWR VGND sg13g2_decap_8
XFILLER_27_760 VPWR VGND sg13g2_fill_2
XFILLER_26_270 VPWR VGND sg13g2_decap_8
XFILLER_41_240 VPWR VGND sg13g2_fill_1
XFILLER_30_947 VPWR VGND sg13g2_fill_1
XFILLER_10_693 VPWR VGND sg13g2_fill_2
X_4040_ _2407_ net940 net1065 VPWR VGND sg13g2_nand2_1
XFILLER_49_373 VPWR VGND sg13g2_decap_8
X_5991_ net23 VGND VPWR _0041_ s0.data_out\[18\]\[2\] clknet_leaf_35_clk sg13g2_dfrbpq_2
X_4942_ net1138 VPWR _0655_ VGND _0653_ _0654_ sg13g2_o21ai_1
X_4873_ VPWR _0070_ _0590_ VGND sg13g2_inv_1
X_3824_ _2212_ net930 _2211_ VPWR VGND sg13g2_nand2_1
X_6124__152 VPWR VGND net152 sg13g2_tiehi
X_3755_ s0.data_out\[3\]\[5\] s0.data_out\[2\]\[5\] net966 _2152_ VPWR VGND sg13g2_mux2_1
X_5970__46 VPWR VGND net46 sg13g2_tiehi
X_3686_ _2087_ VPWR _2088_ VGND _2083_ _2086_ sg13g2_o21ai_1
X_5425_ _1091_ _1092_ _1094_ VPWR VGND _1093_ sg13g2_nand3b_1
X_5356_ net1089 net1062 _1030_ VPWR VGND sg13g2_nor2b_1
X_4307_ net1178 s0.data_out\[19\]\[1\] _2642_ VPWR VGND sg13g2_and2_1
X_5287_ VGND VPWR net1117 _0967_ _0968_ _0938_ sg13g2_a21oi_1
X_4238_ s0.data_out\[21\]\[0\] s0.data_out\[20\]\[0\] net1198 _2578_ VPWR VGND sg13g2_mux2_1
X_4169_ net368 net1206 _2517_ VPWR VGND sg13g2_nor2b_1
XFILLER_16_708 VPWR VGND sg13g2_decap_8
XFILLER_24_752 VPWR VGND sg13g2_fill_2
XFILLER_12_936 VPWR VGND sg13g2_decap_8
XFILLER_23_262 VPWR VGND sg13g2_decap_4
XFILLER_8_929 VPWR VGND sg13g2_decap_8
XFILLER_47_822 VPWR VGND sg13g2_decap_8
XFILLER_0_14 VPWR VGND sg13g2_decap_8
XFILLER_19_546 VPWR VGND sg13g2_fill_2
XFILLER_47_899 VPWR VGND sg13g2_decap_8
XFILLER_0_69 VPWR VGND sg13g2_decap_4
XFILLER_0_47 VPWR VGND sg13g2_decap_4
XFILLER_46_398 VPWR VGND sg13g2_decap_8
XFILLER_15_752 VPWR VGND sg13g2_decap_4
XFILLER_15_774 VPWR VGND sg13g2_fill_1
XFILLER_15_785 VPWR VGND sg13g2_decap_4
X_6108__169 VPWR VGND net169 sg13g2_tiehi
XFILLER_14_284 VPWR VGND sg13g2_fill_2
XFILLER_30_744 VPWR VGND sg13g2_decap_4
XFILLER_31_1013 VPWR VGND sg13g2_decap_8
X_3540_ _1952_ _1955_ net1312 _1956_ VPWR VGND sg13g2_nand3_1
X_5210_ net1100 net1070 _0898_ VPWR VGND sg13g2_nor2b_1
XFILLER_6_494 VPWR VGND sg13g2_fill_2
X_3471_ s0.data_out\[5\]\[0\] s0.data_out\[4\]\[0\] net989 _1892_ VPWR VGND sg13g2_mux2_1
X_6190_ net80 VGND VPWR _0240_ s0.data_out\[2\]\[2\] clknet_leaf_6_clk sg13g2_dfrbpq_2
X_5141_ s0.data_out\[14\]\[0\] s0.data_out\[13\]\[0\] net1119 _0834_ VPWR VGND sg13g2_mux2_1
X_5072_ net1113 s0.data_out\[13\]\[0\] _0773_ VPWR VGND sg13g2_and2_1
X_4023_ VPWR VGND _2379_ _2395_ _2394_ _2368_ _2396_ _2393_ sg13g2_a221oi_1
XFILLER_38_899 VPWR VGND sg13g2_fill_1
XFILLER_37_343 VPWR VGND sg13g2_decap_8
XFILLER_25_538 VPWR VGND sg13g2_decap_4
X_5974_ net42 VGND VPWR _0024_ s0.genblk1\[1\].modules.bubble clknet_leaf_10_clk sg13g2_dfrbpq_1
X_4925_ net1319 net299 _0072_ VPWR VGND sg13g2_and2_1
XFILLER_20_221 VPWR VGND sg13g2_decap_8
X_4856_ _0575_ VPWR _0576_ VGND net1323 net456 sg13g2_o21ai_1
XFILLER_21_777 VPWR VGND sg13g2_decap_8
XFILLER_21_788 VPWR VGND sg13g2_fill_1
XFILLER_21_799 VPWR VGND sg13g2_fill_1
X_3807_ s0.data_out\[1\]\[3\] s0.data_out\[2\]\[3\] net965 _2197_ VPWR VGND sg13g2_mux2_1
X_4787_ net1248 _0514_ _0516_ VPWR VGND sg13g2_nor2_1
X_3738_ _2134_ VPWR _2135_ VGND net1211 _2120_ sg13g2_o21ai_1
X_3669_ _2069_ _2072_ net1307 _2073_ VPWR VGND sg13g2_nand3_1
X_5408_ _1077_ net1096 net486 VPWR VGND sg13g2_nand2_1
X_5339_ net1088 net1070 _1015_ VPWR VGND sg13g2_nor2b_1
XFILLER_48_619 VPWR VGND sg13g2_decap_8
XFILLER_28_321 VPWR VGND sg13g2_fill_2
XFILLER_29_855 VPWR VGND sg13g2_decap_8
XFILLER_29_888 VPWR VGND sg13g2_fill_1
XFILLER_44_836 VPWR VGND sg13g2_decap_8
XFILLER_43_357 VPWR VGND sg13g2_decap_4
XFILLER_15_1008 VPWR VGND sg13g2_decap_8
XFILLER_11_265 VPWR VGND sg13g2_decap_8
XFILLER_7_258 VPWR VGND sg13g2_decap_8
XFILLER_4_921 VPWR VGND sg13g2_decap_8
XFILLER_4_998 VPWR VGND sg13g2_decap_8
Xfanout1232 net1234 net1232 VPWR VGND sg13g2_buf_2
Xfanout1221 _2450_ net1221 VPWR VGND sg13g2_buf_8
Xfanout1210 _2621_ net1210 VPWR VGND sg13g2_buf_8
Xfanout1243 net1245 net1243 VPWR VGND sg13g2_buf_8
Xfanout1254 net1259 net1254 VPWR VGND sg13g2_buf_8
Xfanout1265 net1267 net1265 VPWR VGND sg13g2_buf_8
Xfanout1298 net1299 net1298 VPWR VGND sg13g2_buf_8
Xfanout1287 net1288 net1287 VPWR VGND sg13g2_buf_8
Xfanout1276 ui_in[1] net1276 VPWR VGND sg13g2_buf_8
XFILLER_47_696 VPWR VGND sg13g2_decap_8
XFILLER_15_571 VPWR VGND sg13g2_decap_8
XFILLER_43_891 VPWR VGND sg13g2_decap_8
X_4710_ net922 _2485_ _0444_ VPWR VGND sg13g2_nor2_1
X_5690_ _1275_ _1334_ net1252 _1335_ VPWR VGND sg13g2_nand3_1
X_4641_ s0.data_out\[18\]\[7\] s0.data_out\[17\]\[7\] net1163 _0382_ VPWR VGND sg13g2_mux2_1
X_6121__155 VPWR VGND net155 sg13g2_tiehi
X_4572_ VGND VPWR _2804_ _0318_ _0319_ net1169 sg13g2_a21oi_1
X_3523_ _1941_ VPWR _1942_ VGND _1936_ _1939_ sg13g2_o21ai_1
X_3454_ _1876_ net535 net998 VPWR VGND sg13g2_nand2b_1
XFILLER_6_291 VPWR VGND sg13g2_decap_8
XFILLER_41_0 VPWR VGND sg13g2_fill_2
X_3385_ net1313 net318 _0199_ VPWR VGND sg13g2_and2_1
X_6173_ net99 VGND VPWR _0223_ s0.genblk1\[3\].modules.bubble clknet_leaf_11_clk sg13g2_dfrbpq_1
X_5124_ _0818_ VPWR _0819_ VGND _0814_ _0817_ sg13g2_o21ai_1
X_5055_ _0645_ _0758_ _0759_ _0760_ VPWR VGND sg13g2_nor3_1
X_4006_ _2379_ _2375_ _2376_ _2377_ VPWR VGND sg13g2_and3_1
XFILLER_37_184 VPWR VGND sg13g2_decap_8
XFILLER_13_508 VPWR VGND sg13g2_decap_8
X_5957_ net60 VGND VPWR net360 s0.data_out\[21\]\[4\] clknet_leaf_7_clk sg13g2_dfrbpq_1
X_4908_ VGND VPWR _0571_ _0624_ _0625_ net1250 sg13g2_a21oi_1
X_5888_ _1506_ _2467_ _1505_ VPWR VGND sg13g2_nand2_1
X_4839_ _0561_ net1220 _2485_ VPWR VGND sg13g2_nand2_1
X_6509_ s0.was_valid_out\[21\][0] net1 VPWR VGND sg13g2_buf_1
XFILLER_1_935 VPWR VGND sg13g2_decap_8
XFILLER_0_445 VPWR VGND sg13g2_decap_8
Xhold31 _0176_ VPWR VGND net327 sg13g2_dlygate4sd3_1
Xhold20 s0.genblk1\[11\].modules.bubble VPWR VGND net316 sg13g2_dlygate4sd3_1
XFILLER_29_31 VPWR VGND sg13g2_fill_1
Xhold53 s0.data_out\[2\]\[5\] VPWR VGND net349 sg13g2_dlygate4sd3_1
Xhold42 s0.shift_out\[16\][0] VPWR VGND net338 sg13g2_dlygate4sd3_1
Xhold64 _0007_ VPWR VGND net360 sg13g2_dlygate4sd3_1
Xhold97 s0.was_valid_out\[2\][0] VPWR VGND net393 sg13g2_dlygate4sd3_1
Xhold75 _2527_ VPWR VGND net371 sg13g2_dlygate4sd3_1
Xhold86 _0073_ VPWR VGND net382 sg13g2_dlygate4sd3_1
XFILLER_45_30 VPWR VGND sg13g2_fill_2
X_6068__212 VPWR VGND net212 sg13g2_tiehi
XFILLER_44_655 VPWR VGND sg13g2_decap_8
XFILLER_43_143 VPWR VGND sg13g2_decap_4
XFILLER_16_346 VPWR VGND sg13g2_fill_2
XFILLER_17_869 VPWR VGND sg13g2_decap_8
XFILLER_8_589 VPWR VGND sg13g2_fill_1
XFILLER_8_567 VPWR VGND sg13g2_fill_1
XFILLER_39_416 VPWR VGND sg13g2_decap_8
XFILLER_6_1028 VPWR VGND sg13g2_fill_1
XFILLER_6_1017 VPWR VGND sg13g2_decap_8
X_3170_ VGND VPWR _1620_ net503 net1327 sg13g2_or2_1
Xfanout1040 s0.shift_out\[9\][0] net1040 VPWR VGND sg13g2_buf_8
Xfanout1051 net1052 net1051 VPWR VGND sg13g2_buf_8
Xfanout1062 net1064 net1062 VPWR VGND sg13g2_buf_8
Xfanout1073 net1076 net1073 VPWR VGND sg13g2_buf_8
Xfanout1095 s0.shift_out\[11\][0] net1095 VPWR VGND sg13g2_buf_1
Xfanout1084 net1087 net1084 VPWR VGND sg13g2_buf_8
XFILLER_48_983 VPWR VGND sg13g2_decap_8
XFILLER_47_460 VPWR VGND sg13g2_fill_1
XFILLER_35_644 VPWR VGND sg13g2_fill_2
XFILLER_34_121 VPWR VGND sg13g2_decap_4
X_5811_ s0.data_out\[9\]\[7\] s0.data_out\[8\]\[7\] net1032 _1437_ VPWR VGND sg13g2_mux2_1
X_5742_ net1024 net608 _1374_ VPWR VGND sg13g2_and2_1
XFILLER_34_198 VPWR VGND sg13g2_fill_1
X_5673_ _1318_ net1041 net542 VPWR VGND sg13g2_nand2_1
X_4624_ _0365_ net1163 net496 VPWR VGND sg13g2_nand2_1
X_4555_ s0.data_out\[17\]\[0\] s0.data_out\[18\]\[0\] net1175 _0304_ VPWR VGND sg13g2_mux2_1
X_3506_ _1914_ _1923_ _1924_ _1926_ _1927_ VPWR VGND sg13g2_nor4_1
X_4486_ _2802_ VPWR _2803_ VGND _2798_ _2801_ sg13g2_o21ai_1
X_3437_ VPWR _0206_ _1861_ VGND sg13g2_inv_1
X_3368_ VGND VPWR net1004 _1800_ _1801_ _1748_ sg13g2_a21oi_1
X_6156_ net117 VGND VPWR _0206_ s0.data_out\[5\]\[4\] clknet_leaf_14_clk sg13g2_dfrbpq_2
X_5107_ VGND VPWR _0804_ net525 net1322 sg13g2_or2_1
X_6210__234 VPWR VGND net234 sg13g2_tiehi
XFILLER_39_972 VPWR VGND sg13g2_decap_8
X_6087_ net191 VGND VPWR _0137_ s0.data_out\[10\]\[2\] clknet_leaf_21_clk sg13g2_dfrbpq_2
X_3299_ net1000 VPWR _1737_ VGND _1735_ _1736_ sg13g2_o21ai_1
XFILLER_38_482 VPWR VGND sg13g2_fill_2
X_5038_ s0.data_out\[15\]\[4\] s0.data_out\[14\]\[4\] net1133 _0743_ VPWR VGND sg13g2_mux2_1
XFILLER_38_493 VPWR VGND sg13g2_fill_1
XFILLER_25_132 VPWR VGND sg13g2_decap_8
XFILLER_26_688 VPWR VGND sg13g2_fill_2
XFILLER_40_135 VPWR VGND sg13g2_fill_2
XFILLER_40_102 VPWR VGND sg13g2_fill_2
XFILLER_31_32 VPWR VGND sg13g2_fill_1
Xoutput8 net8 uo_out[6] VPWR VGND sg13g2_buf_1
XFILLER_1_732 VPWR VGND sg13g2_decap_8
XFILLER_0_253 VPWR VGND sg13g2_decap_8
XFILLER_49_758 VPWR VGND sg13g2_decap_8
XFILLER_45_942 VPWR VGND sg13g2_decap_8
XFILLER_17_633 VPWR VGND sg13g2_decap_4
XFILLER_16_143 VPWR VGND sg13g2_decap_8
XFILLER_44_485 VPWR VGND sg13g2_fill_2
XFILLER_16_198 VPWR VGND sg13g2_decap_4
XFILLER_32_647 VPWR VGND sg13g2_decap_8
XFILLER_12_393 VPWR VGND sg13g2_fill_2
X_4340_ net1182 net1053 _2671_ VPWR VGND sg13g2_nor2b_1
XFILLER_28_1007 VPWR VGND sg13g2_decap_8
XFILLER_4_592 VPWR VGND sg13g2_decap_4
X_4271_ _2611_ _2606_ _2610_ VPWR VGND sg13g2_nand2_1
X_6010_ net275 VGND VPWR _0060_ s0.genblk1\[16\].modules.bubble clknet_leaf_32_clk
+ sg13g2_dfrbpq_1
X_3222_ VGND VPWR net1014 _1666_ _1667_ _1616_ sg13g2_a21oi_1
X_3153_ net1012 VPWR _1605_ VGND _1603_ _1604_ sg13g2_o21ai_1
XFILLER_28_909 VPWR VGND sg13g2_decap_8
XFILLER_48_780 VPWR VGND sg13g2_decap_8
XFILLER_35_463 VPWR VGND sg13g2_decap_8
X_5985__30 VPWR VGND net30 sg13g2_tiehi
XFILLER_23_669 VPWR VGND sg13g2_decap_4
X_3986_ VGND VPWR _2299_ _2353_ _2359_ net1274 sg13g2_a21oi_1
X_5725_ _1359_ net919 _1358_ VPWR VGND sg13g2_nand2_1
X_5656_ _1301_ net1078 _1300_ VPWR VGND sg13g2_nand2b_1
X_4607_ net1301 VPWR _0350_ VGND _2461_ _0349_ sg13g2_o21ai_1
X_5587_ _1240_ net934 _1239_ VPWR VGND sg13g2_nand2_1
X_4538_ _0291_ _0272_ _2833_ VPWR VGND sg13g2_nand2b_1
X_4469_ VGND VPWR _2788_ net586 net1290 sg13g2_or2_1
X_6208_ net260 VGND VPWR _0258_ s0.shift_out\[1\][0] clknet_leaf_10_clk sg13g2_dfrbpq_2
X_6139_ net135 VGND VPWR _0189_ s0.valid_out\[6\][0] clknet_leaf_16_clk sg13g2_dfrbpq_1
XFILLER_42_901 VPWR VGND sg13g2_decap_8
XFILLER_26_441 VPWR VGND sg13g2_decap_8
X_6065__215 VPWR VGND net215 sg13g2_tiehi
XFILLER_42_978 VPWR VGND sg13g2_decap_8
XFILLER_42_20 VPWR VGND sg13g2_decap_4
XFILLER_41_455 VPWR VGND sg13g2_fill_1
XFILLER_41_477 VPWR VGND sg13g2_decap_4
XFILLER_10_831 VPWR VGND sg13g2_decap_8
XFILLER_5_378 VPWR VGND sg13g2_fill_2